&share
  wrf_core = 'ARW',
  max_dom = 1,
  start_date = '@start_time@',
  end_date = '@end_time@',
  interval_seconds = @interval_seconds@,
  io_form_geogrid = 2,
  opt_output_from_geogrid_path = './',
/

&ungrib
  out_format = 'WPS',
  prefix = '@prefix@',
  pmin = 1.0,
/
